<?xml version="1.0" encoding="UTF-8" standalone="no"?>
<graphml xmlns="http://graphml.graphdrawing.org/xmlns"
         xmlns:xsi="http://www.w3.org/2001/XMLSchema-instance"
         xmlns:y="http://www.yworks.com/xml/graphml"
         xsi:schemaLocation="http://graphml.graphdrawing.org/xmlns
         http://www.yworks.com/xml/schema/graphml/1.1/ygraphml.xsd">
  <key id="d0" for="node" yfiles.type="nodegraphics"/>
  <key id="d1" for="edge" yfiles.type="edgegraphics"/>
  <graph id="G" edgedefault="directed">
    <!-- Nodes -->
    <node id="title_screen">
      <data key="d0"><y:ShapeNode><y:NodeLabel>title_screen()</y:NodeLabel></y:ShapeNode></data>
    </node>
    <node id="dream_flashback">
      <data key="d0"><y:ShapeNode><y:NodeLabel>dream_flashback()</y:NodeLabel></y:ShapeNode></data>
    </node>
    <node id="show_persuasion_lore">
      <data key="d0"><y:ShapeNode><y:NodeLabel>show_persuasion_lore()</y:NodeLabel></y:ShapeNode></data>
    </node>
    <node id="instructions">
      <data key="d0"><y:ShapeNode><y:NodeLabel>instructions()</y:NodeLabel></y:ShapeNode></data>
    </node>
    <node id="show_setting">
      <data key="d0"><y:ShapeNode><y:NodeLabel>show_setting()</y:NodeLabel></y:ShapeNode></data>
    </node>
    <node id="show_mystery">
      <data key="d0"><y:ShapeNode><y:NodeLabel>show_mystery()</y:NodeLabel></y:ShapeNode></data>
    </node>
    <node id="load_game">
      <data key="d0"><y:ShapeNode><y:NodeLabel>load_game()</y:NodeLabel></y:ShapeNode></data>
    </node>
    <node id="exit">
      <data key="d0"><y:ShapeNode><y:NodeLabel>exit()</y:NodeLabel></y:ShapeNode></data>
    </node>
    <node id="intro_scene">
      <data key="d0"><y:ShapeNode><y:NodeLabel>intro_scene()</y:NodeLabel></y:ShapeNode></data>
    </node>
    <node id="character_creation">
      <data key="d0"><y:ShapeNode><y:NodeLabel>character_creation()</y:NodeLabel></y:ShapeNode></data>
    </node>
    <node id="start_first_case">
      <data key="d0"><y:ShapeNode><y:NodeLabel>start_first_case()</y:NodeLabel></y:ShapeNode></data>
    </node>
    <node id="describe_room">
      <data key="d0"><y:ShapeNode><y:NodeLabel>describe_room()</y:NodeLabel></y:ShapeNode></data>
    </node>
    <node id="interrogate_suspect">
      <data key="d0"><y:ShapeNode><y:NodeLabel>interrogate_suspect()</y:NodeLabel></y:ShapeNode></data>
    </node>
    <node id="skill_check_combat">
      <data key="d0"><y:ShapeNode><y:NodeLabel>skill_check_combat()</y:NodeLabel></y:ShapeNode></data>
    </node>
    <node id="case_resolution">
      <data key="d0"><y:ShapeNode><y:NodeLabel>case_resolution()</y:NodeLabel></y:ShapeNode></data>
    </node>
    <node id="show_map">
      <data key="d0"><y:ShapeNode><y:NodeLabel>show_map()</y:NodeLabel></y:ShapeNode></data>
    </node>
    <node id="show_inventory">
      <data key="d0"><y:ShapeNode><y:NodeLabel>show_inventory()</y:NodeLabel></y:ShapeNode></data>
    </node>
    <node id="show_journal">
      <data key="d0"><y:ShapeNode><y:NodeLabel>show_journal()</y:NodeLabel></y:ShapeNode></data>
    </node>
    <node id="show_quests">
      <data key="d0"><y:ShapeNode><y:NodeLabel>show_quests()</y:NodeLabel></y:ShapeNode></data>
    </node>
    <node id="save_game">
      <data key="d0"><y:ShapeNode><y:NodeLabel>save_game()</y:NodeLabel></y:ShapeNode></data>
    </node>
    <node id="show_score">
      <data key="d0"><y:ShapeNode><y:NodeLabel>show_score()</y:NodeLabel></y:ShapeNode></data>
    </node>
    <!-- Edges -->
    <edge source="title_screen" target="dream_flashback"/>
    <edge source="title_screen" target="show_persuasion_lore"/>
    <edge source="title_screen" target="instructions"/>
    <edge source="title_screen" target="show_setting"/>
    <edge source="title_screen" target="show_mystery"/>
    <edge source="title_screen" target="load_game"/>
    <edge source="title_screen" target="exit"/>
    <edge source="dream_flashback" target="intro_scene"/>
    <edge source="intro_scene" target="character_creation"/>
    <edge source="character_creation" target="start_first_case"/>
    <edge source="start_first_case" target="describe_room"/>
    <edge source="describe_room" target="interrogate_suspect"/>
    <edge source="describe_room" target="skill_check_combat"/>
    <edge source="describe_room" target="case_resolution"/>
    <edge source="describe_room" target="show_map"/>
    <edge source="describe_room" target="show_inventory"/>
    <edge source="describe_room" target="show_journal"/>
    <edge source="describe_room" target="show_quests"/>
    <edge source="describe_room" target="save_game"/>
    <edge source="case_resolution" target="show_score"/>
    <edge source="show_score" target="title_screen"/>
  </graph>
</graphml>